*HEADING
cubit(chip.inp): 03/13/2026: 18:14:06
version: 2023.11
**
********************************** P A R T S **********************************
*PART, NAME=Part-Default
**
********************************** N O D E S **********************************
*NODE, NSET=ALLNODES
       1,   -4.980000e+03,   -1.745000e+03,    0.000000e+00
       2,   -4.980000e+03,    1.745000e+03,    0.000000e+00
       3,   -4.980000e+03,   -1.735000e+03,    0.000000e+00
       4,   -4.980000e+03,   -1.725000e+03,    0.000000e+00
       5,   -4.980000e+03,   -1.715000e+03,    0.000000e+00
       6,   -4.980000e+03,   -1.705000e+03,    0.000000e+00
       7,   -4.980000e+03,   -1.695000e+03,    0.000000e+00
       8,   -4.980000e+03,   -1.685000e+03,    0.000000e+00
       9,   -4.980000e+03,   -1.675000e+03,    0.000000e+00
      10,   -4.980000e+03,   -1.665000e+03,    0.000000e+00
      11,   -4.980000e+03,   -1.655000e+03,    0.000000e+00
      12,   -4.980000e+03,   -1.645000e+03,    0.000000e+00
      13,   -4.980000e+03,   -1.635000e+03,    0.000000e+00
      14,   -4.980000e+03,   -1.625000e+03,    0.000000e+00
      15,   -4.980000e+03,   -1.615000e+03,    0.000000e+00
      16,   -4.980000e+03,   -1.605000e+03,    0.000000e+00
      17,   -4.980000e+03,   -1.595000e+03,    0.000000e+00
      18,   -4.980000e+03,   -1.585000e+03,    0.000000e+00
      19,   -4.980000e+03,   -1.575000e+03,    0.000000e+00
      20,   -4.980000e+03,   -1.565000e+03,    0.000000e+00
** ... 47974 like lines cut
**
********************************** E L E M E N T S ****************************
*ELEMENT, TYPE=STRI3, ELSET=EB1
       1,   47123,   47124,   47377
       2,   47122,   47123,   47378
       3,   47121,   47122,   47379
       4,   47120,   47121,   47380
       5,   47119,   47120,   47381
       6,   47118,   47119,   47382
       7,   47117,   47118,   47383
       8,   47116,   47117,   47384
       9,   47115,   47116,   47385
      10,   47114,   47115,   47386
      11,   47113,   47114,   47387
      12,   47113,   47387,   47389
      13,   47098,   47099,   47390
      14,   47096,   47098,   47376
      15,   47109,   47110,   47391
      16,   47108,   47109,   47392
      17,   47107,   47108,   47393
      18,   47106,   47107,   47394
      19,   47105,   47106,   47395
      20,   47104,   47105,   47396
** ... 1495 like lines cut
*ELEMENT, TYPE=STRI3, ELSET=EB2
    1516,   44782,   44783,   45196
    1517,   44780,   44781,   45197
    1518,   44779,   44780,   45198
    1519,   44777,   44778,   45199
    1520,   44775,   44776,   45200
    1521,   44774,   44775,   45201
    1522,   44772,   44773,   45202
    1523,   44770,   44771,   45203
    1524,   44768,   44769,   45204
    1525,   44767,   44768,   45205
    1526,   44765,   44766,   45206
    1527,   44763,   44764,   45207
    1528,   44762,   44763,   45208
    1529,   44760,   44761,   45209
    1530,   44757,   44758,   45210
    1531,   44756,   44757,   45211
    1532,   44754,   44755,   45212
    1533,   44752,   44753,   45213
    1534,   44751,   44752,   45214
    1535,   44749,   44750,   45215
** ... 4514 like lines cut
*ELEMENT, TYPE=STRI3, ELSET=EB3
    6050,   43775,   43630,   43631
    6051,   43396,   43397,   43776
    6052,   43395,   43396,   43777
    6053,   43394,   43395,   43778
    6054,   43393,   43394,   43779
    6055,   43392,   43393,   43780
    6056,   43391,   43392,   43781
    6057,   43390,   43391,   43782
    6058,   43389,   43390,   43783
    6059,   43388,   43389,   43784
    6060,   43387,   43388,   43785
    6061,   43386,   43387,   43786
    6062,   43385,   43386,   43787
    6063,   43668,   43669,   43789
    6064,   43383,   43369,   43790
    6065,   43368,   43370,   43774
    6066,   43381,   43382,   43791
    6067,   43380,   43381,   43792
    6068,   43379,   43380,   43793
    6069,   43378,   43379,   43794
** ... 1755 like lines cut
*ELEMENT, TYPE=STRI3, ELSET=EB4
    7825,   42415,   42688,   42414
    7826,   42315,   42316,   42689
    7827,   42314,   42315,   42690
    7828,   42313,   42314,   42691
    7829,   42312,   42313,   42692
    7830,   42311,   42312,   42693
    7831,   42310,   42311,   42694
    7832,   42309,   42310,   42695
    7833,   42308,   42309,   42696
    7834,   42307,   42308,   42697
    7835,   42306,   42307,   42698
    7836,   42305,   42306,   42699
    7837,   42304,   42305,   42700
    7838,   42304,   42700,   42702
    7839,   42287,   42289,   42687
    7840,   42300,   42301,   42703
    7841,   42299,   42300,   42704
    7842,   42298,   42299,   42705
    7843,   42297,   42298,   42706
    7844,   42296,   42297,   42707
** ... 1739 like lines cut
*ELEMENT, TYPE=STRI3, ELSET=EB5
    9584,   41602,   41467,   41468
    9585,   41235,   41236,   41603
    9586,   41234,   41235,   41604
    9587,   41233,   41234,   41605
    9588,   41232,   41233,   41606
    9589,   41231,   41232,   41607
    9590,   41230,   41231,   41608
    9591,   41229,   41230,   41609
    9592,   41228,   41229,   41610
    9593,   41227,   41228,   41611
    9594,   41226,   41227,   41612
    9595,   41225,   41226,   41613
    9596,   41224,   41225,   41614
    9597,   41224,   41614,   41616
    9598,   41207,   41209,   41601
    9599,   41220,   41221,   41617
    9600,   41219,   41220,   41618
    9601,   41218,   41219,   41619
    9602,   41217,   41218,   41620
    9603,   41216,   41217,   41621
** ... 1743 like lines cut
*ELEMENT, TYPE=STRI3, ELSET=EB6
   11347,   40531,   40402,   40403
   11348,   40170,   40171,   40532
   11349,   40169,   40170,   40533
   11350,   40168,   40169,   40534
   11351,   40167,   40168,   40535
   11352,   40166,   40167,   40536
   11353,   40165,   40166,   40537
   11354,   40164,   40165,   40538
   11355,   40163,   40164,   40539
   11356,   40162,   40163,   40540
   11357,   40161,   40162,   40541
   11358,   40160,   40161,   40542
   11359,   40159,   40160,   40543
   11360,   40159,   40543,   40545
   11361,   40142,   40144,   40530
   11362,   40155,   40156,   40546
   11363,   40154,   40155,   40547
   11364,   40153,   40154,   40548
   11365,   40152,   40153,   40549
   11366,   40151,   40152,   40550
** ... 1719 like lines cut
*ELEMENT, TYPE=STRI3, ELSET=EB7
   13086,   39431,   39432,   39433
   13087,   39415,   39416,   39434
   13088,   39413,   39414,   39435
   13089,   39412,   39413,   39436
   13090,   39402,   39403,   39437
   13091,   39401,   39402,   39438
   13092,   39400,   39401,   39439
   13093,   39399,   39400,   39440
   13094,   39398,   39399,   39441
   13095,   39397,   39398,   39442
   13096,   39396,   39397,   39443
   13097,   39395,   39396,   39444
   13098,   39390,   39391,   39445
   13099,   39151,   39152,   39446
   13100,   39148,   39149,   39447
   13101,   39145,   39146,   39448
   13102,   39144,   39145,   39449
   13103,   39143,   39144,   39450
   13104,   39142,   39143,   39451
   13105,   39141,   39142,   39452
** ... 1833 like lines cut
*ELEMENT, TYPE=STRI3, ELSET=EB8
   14939,   38266,   38267,   38282
   14940,   38265,   38266,   38283
   14941,   38264,   38265,   38284
   14942,   38263,   38264,   38285
   14943,   38262,   38263,   38286
   14944,   38252,   38159,   38287
   14945,   38251,   38252,   38288
   14946,   38249,   38250,   38289
   14947,   38248,   38249,   38290
   14948,   38247,   38248,   38291
   14949,   38246,   38247,   38292
   14950,   38245,   38246,   38293
   14951,   38244,   38245,   38294
   14952,   38239,   38240,   38295
   14953,   38000,   38001,   38296
   14954,   37995,   37996,   38297
   14955,   37993,   37994,   38298
   14956,   37992,   37993,   38299
   14957,   37991,   37992,   38300
   14958,   37990,   37991,   38301
** ... 1850 like lines cut
*ELEMENT, TYPE=STRI3, ELSET=EB9
   16809,   37099,   37100,   37116
   16810,   37098,   37099,   37117
   16811,   37097,   37098,   37118
   16812,   37096,   37097,   37119
   16813,   37095,   37096,   37120
   16814,   37086,   36990,   37121
   16815,   37085,   37086,   37122
   16816,   37084,   37085,   37123
   16817,   37083,   37084,   37124
   16818,   37082,   37083,   37125
   16819,   37081,   37082,   37126
   16820,   37080,   37081,   37127
   16821,   37078,   37079,   37128
   16822,   37073,   37074,   37129
   16823,   36830,   36831,   37130
   16824,   36827,   36828,   37131
   16825,   36826,   36827,   37132
   16826,   36825,   36826,   37133
   16827,   36824,   36825,   37134
   16828,   36823,   36824,   37135
** ... 1873 like lines cut
*ELEMENT, TYPE=STRI3, ELSET=EB10
   18702,   35928,   35929,   35945
   18703,   35941,   35942,   35946
   18704,   35926,   35927,   35947
   18705,   35925,   35926,   35948
   18706,   35924,   35925,   35949
   18707,   35915,   35815,   35950
   18708,   35914,   35915,   35951
   18709,   35913,   35914,   35952
   18710,   35912,   35913,   35953
   18711,   35911,   35912,   35954
   18712,   35910,   35911,   35955
   18713,   35909,   35910,   35956
   18714,   35908,   35909,   35957
   18715,   35907,   35908,   35958
   18716,   35659,   35660,   35959
   18717,   35656,   35657,   35960
   18718,   35655,   35656,   35961
   18719,   35654,   35655,   35962
   18720,   35653,   35654,   35963
   18721,   35652,   35653,   35964
** ... 1876 like lines cut
*ELEMENT, TYPE=STRI3, ELSET=EB11
   20598,   34756,   34293,   34294
   20599,   34738,   34739,   34757
   20600,   34736,   34737,   34758
   20601,   34726,   34623,   34759
   20602,   34725,   34726,   34760
   20603,   34724,   34725,   34761
   20604,   34723,   34724,   34762
   20605,   34722,   34723,   34763
   20606,   34721,   34722,   34764
   20607,   34720,   34721,   34765
   20608,   34719,   34720,   34766
   20609,   34718,   34719,   34767
   20610,   34717,   34718,   34768
   20611,   34713,   34714,   34769
   20612,   34467,   34468,   34770
   20613,   34466,   34467,   34771
   20614,   34465,   34466,   34772
   20615,   34464,   34465,   34773
   20616,   34463,   34464,   34774
   20617,   34462,   34463,   34775
** ... 1905 like lines cut
*ELEMENT, TYPE=STRI3, ELSET=EB12
   22523,   32141,   32142,   33589
   22524,   32140,   32141,   33590
   22525,   32138,   32139,   33591
   22526,   32137,   32138,   33592
   22527,   32136,   32137,   33593
   22528,   32135,   32136,   33594
   22529,   32133,   32134,   33595
   22530,   32132,   32133,   33596
   22531,   32131,   32132,   33597
   22532,   32129,   32130,   33598
   22533,   32128,   32129,   33599
   22534,   32127,   32128,   33600
   22535,   32126,   32127,   33601
   22536,   32124,   32125,   33602
   22537,   32123,   32124,   33603
   22538,   32122,   32123,   33604
   22539,   32121,   32122,   33605
   22540,   32119,   32120,   33606
   22541,   32118,   32119,   33607
   22542,   32117,   32118,   33608
** ... 3177 like lines cut
*ELEMENT, TYPE=STRI3, ELSET=EB13
   25720,   28473,   28474,   28490
   25721,   28472,   28473,   28491
   25722,   28471,   28472,   28492
   25723,   28470,   28471,   28493
   25724,   28469,   28470,   28494
   25725,   28468,   28469,   28495
   25726,   28464,   28465,   28496
   25727,   28460,   28461,   28497
   25728,   28226,   28227,   28498
   25729,   28225,   28226,   28499
   25730,   28500,   26465,   26466
   25731,   27153,   27154,   28501
   25732,   28501,   29306,   31727
   25733,   27151,   27152,   28503
   25734,   27150,   27151,   28504
   25735,   27149,   27150,   28505
   25736,   27147,   27148,   28507
   25737,   27145,   27146,   28509
   25738,   27143,   27144,   28511
   25739,   27141,   27142,   28513
** ... 8808 like lines cut
*ELEMENT, TYPE=STRI3, ELSET=EB14
   34548,   24346,   23642,   23643
   34549,   23959,   23960,   24347
   34550,   23958,   23959,   24348
   34551,   23956,   23957,   24349
   34552,   23954,   23955,   24350
   34553,   23888,   23889,   24351
   34554,   23645,   23646,   24352
   34555,   23644,   23645,   24353
   34556,   23643,   23644,   24354
   34557,   23641,   23642,   24355
   34558,   23640,   23641,   24356
   34559,   23639,   23640,   24357
   34560,   23638,   23639,   24358
   34561,   23637,   23638,   24359
   34562,   23636,   23637,   24360
   34563,   23635,   23636,   24361
   34564,   23635,   24361,   23633
   34565,   23633,   23620,   23635
   34566,   23611,   23621,   24362
   34567,   23631,   23632,   24363
** ... 4558 like lines cut
*ELEMENT, TYPE=STRI3, ELSET=EB15
   39126,   22911,   22722,   22723
   39127,   21455,   21456,   22912
   39128,   21454,   21455,   22913
   39129,   21453,   21454,   22914
   39130,   21451,   21452,   22915
   39131,   21450,   21451,   22916
   39132,   21449,   21450,   22917
   39133,   21448,   21449,   22918
   39134,   21446,   21447,   22919
   39135,   21445,   21446,   22920
   39136,   21444,   21445,   22921
   39137,   21443,   21444,   22922
   39138,   21441,   21442,   22923
   39139,   21441,   22923,   21440
   39140,   21439,   21440,   21503
   39141,   21438,   21439,   21504
   39142,   21436,   21437,   21506
   39143,   21435,   21436,   21507
   39144,   21434,   21435,   21508
   39145,   21433,   21434,   21509
** ... 3171 like lines cut
*ELEMENT, TYPE=STRI3, ELSET=EB16
   42317,   20422,   20298,   20299
   42318,   20409,   20410,   20423
   42319,   20403,   20404,   20424
   42320,   20399,   20400,   20425
   42321,   20395,   20396,   20426
   42322,   20391,   20392,   20427
   42323,   20387,   20388,   20428
   42324,   20386,   20387,   20429
   42325,   20385,   20386,   20430
   42326,   20383,   20384,   20431
   42327,   20382,   20383,   20432
   42328,   20381,   20382,   20433
   42329,   20380,   20381,   20434
   42330,   20378,   20379,   20435
   42331,   20377,   20378,   20436
   42332,   20375,   20376,   20437
   42333,   20374,   20375,   20438
   42334,   20373,   20374,   20439
   42335,   20371,   20372,   20440
   42336,   20370,   20371,   20441
** ... 1773 like lines cut
*ELEMENT, TYPE=STRI3, ELSET=EB17
   44110,   19326,   19203,   19204
   44111,   19308,   19309,   19327
   44112,   19329,   18939,   18940
   44113,   19330,   18944,   18945
   44114,   19291,   19292,   19331
   44115,   19332,   18949,   18950
   44116,   19289,   19290,   19333
   44117,   19287,   19288,   19334
   44118,   19286,   19287,   19335
   44119,   19283,   19284,   19337
   44120,   19282,   19283,   19338
   44121,   19337,   19880,   19338
   44122,   19278,   19279,   19341
   44123,   19669,   18962,   19342
   44124,   19343,   18964,   18965
   44125,   19274,   19275,   19344
   44126,   19273,   19274,   19345
   44127,   19346,   18968,   18969
   44128,   19270,   19271,   19347
   44129,   19662,   19663,   19737
** ... 1757 like lines cut
*ELEMENT, TYPE=STRI3, ELSET=EB18
   45887,   18242,   17856,   17857
   45888,   18217,   18218,   18243
   45889,   18212,   18213,   18244
   45890,   18206,   18207,   18246
   45891,   18791,   18591,   18639
   45892,   18248,   17874,   17875
   45893,   18202,   18203,   18249
   45894,   18250,   17876,   17877
   45895,   18494,   17878,   18251
   45896,   18198,   18199,   18252
   45897,   18582,   17880,   18253
   45898,   18195,   18196,   18254
   45899,   18193,   18194,   18256
   45900,   18190,   18191,   18258
   45901,   18189,   18190,   18259
   45902,   18187,   18188,   18260
   45903,   18185,   18186,   18262
   45904,   18183,   18184,   18263
   45905,   18182,   18183,   18264
   45906,   18179,   18180,   18266
** ... 1739 like lines cut
*ELEMENT, TYPE=STRI3, ELSET=EB19
   47646,   17157,   17158,   17173
   47647,   17153,   17154,   17174
   47648,   17144,   17145,   17176
   47649,   17137,   17138,   17178
   47650,   17179,   16809,   16810
   47651,   17135,   17136,   17180
   47652,   17134,   17135,   17181
   47653,   17133,   17134,   17182
   47654,   17131,   17132,   17183
   47655,   17130,   17131,   17184
   47656,   17129,   17130,   17185
   47657,   17126,   17127,   17186
   47658,   17124,   17125,   17188
   47659,   17122,   17123,   17189
   47660,   17190,   16824,   16825
   47661,   17120,   17121,   17191
   47662,   17118,   17119,   17192
   47663,   17117,   17118,   17193
   47664,   17115,   17116,   17194
   47665,   17113,   17114,   17196
** ... 1715 like lines cut
*ELEMENT, TYPE=STRI3, ELSET=EB20
   49381,   15972,   15973,   16120
   49382,   15970,   15971,   16121
   49383,   15967,   15968,   16122
   49384,   15965,   15966,   16123
   49385,   15963,   15964,   16124
   49386,   15961,   15962,   16125
   49387,   15960,   15961,   16126
   49388,   15959,   15960,   16127
   49389,   15958,   15959,   16128
   49390,   15957,   15958,   16129
   49391,   15956,   15957,   16130
   49392,   15955,   15956,   16131
   49393,   15953,   15954,   16132
   49394,   15952,   15953,   16133
   49395,   15951,   15952,   16134
   49396,   15950,   15951,   16135
   49397,   15949,   15950,   16136
   49398,   15948,   15949,   16137
   49399,   15947,   15948,   16138
   49400,   15946,   15947,   16139
** ... 1600 like lines cut
*ELEMENT, TYPE=STRI3, ELSET=EB21
   51001,   14854,   14767,   15103
   51002,   14852,   14853,   15104
   51003,   14850,   14851,   15105
   51004,   14848,   14849,   15106
   51005,   14846,   14847,   15107
   51006,   14844,   14845,   15108
   51007,   14842,   14843,   15109
   51008,   14840,   14841,   15110
   51009,   14838,   14839,   15111
   51010,   14836,   14837,   15112
   51011,   14834,   14835,   15113
   51012,   14832,   14833,   15114
   51013,   14830,   14831,   15115
   51014,   14829,   14830,   15116
   51015,   14827,   14828,   15117
   51016,   14825,   14826,   15118
   51017,   14824,   14825,   15119
   51018,   14822,   14823,   15120
   51019,   14821,   14822,   15121
   51020,   14819,   14820,   15122
** ... 1861 like lines cut
*ELEMENT, TYPE=STRI3, ELSET=EB22
   52882,   13695,   13696,   13949
   52883,   13692,   13693,   13950
   52884,   13690,   13691,   13951
   52885,   13688,   13689,   13952
   52886,   13686,   13687,   13953
   52887,   13684,   13685,   13954
   52888,   13682,   13683,   13955
   52889,   13680,   13681,   13956
   52890,   13678,   13679,   13957
   52891,   13676,   13677,   13958
   52892,   13675,   13676,   13959
   52893,   13673,   13674,   13960
   52894,   13671,   13672,   13961
   52895,   13669,   13670,   13962
   52896,   13668,   13669,   13963
   52897,   13666,   13667,   13964
   52898,   13664,   13665,   13965
   52899,   13663,   13664,   13966
   52900,   13726,   13727,   13967
   52901,   13661,   13662,   13968
** ... 1856 like lines cut
*ELEMENT, TYPE=STRI3, ELSET=EB23
   54758,   12527,   12528,   12784
   54759,   12557,   12558,   12785
   54760,   12524,   12525,   12786
   54761,   12522,   12523,   12787
   54762,   12520,   12521,   12788
   54763,   12518,   12519,   12789
   54764,   12516,   12517,   12790
   54765,   12514,   12515,   12791
   54766,   12512,   12513,   12792
   54767,   12510,   12511,   12793
   54768,   12508,   12509,   12794
   54769,   12507,   12508,   12795
   54770,   12505,   12506,   12796
   54771,   12503,   12504,   12797
   54772,   12501,   12502,   12798
   54773,   12500,   12501,   12799
   54774,   12498,   12499,   12800
   54775,   12496,   12497,   12801
   54776,   12495,   12496,   12802
   54777,   12493,   12494,   12803
** ... 1871 like lines cut
*ELEMENT, TYPE=STRI3, ELSET=EB24
   56649,   11348,   11349,   11609
   56650,   11346,   11347,   11610
   56651,   11344,   11345,   11611
   56652,   11342,   11343,   11612
   56653,   11340,   11341,   11613
   56654,   11338,   11339,   11614
   56655,   11336,   11337,   11615
   56656,   11334,   11335,   11616
   56657,   11332,   11333,   11617
   56658,   11392,   11393,   11618
   56659,   11330,   11331,   11619
   56660,   11328,   11329,   11620
   56661,   11326,   11327,   11621
   56662,   11324,   11325,   11622
   56663,   11323,   11324,   11623
   56664,   11321,   11322,   11624
   56665,   11319,   11320,   11625
   56666,   11318,   11319,   11626
   56667,   11316,   11317,   11627
   56668,   11314,   11315,   11628
** ... 1884 like lines cut
*ELEMENT, TYPE=STRI3, ELSET=EB25
   58553,   10160,   10161,   10426
   58554,   10158,   10159,   10427
   58555,   10156,   10157,   10428
   58556,   10154,   10155,   10429
   58557,   10152,   10153,   10430
   58558,   10150,   10151,   10431
   58559,   10148,   10149,   10432
   58560,   10146,   10147,   10433
   58561,   10144,   10145,   10434
   58562,   10142,   10143,   10435
   58563,   10140,   10141,   10436
   58564,   10139,   10140,   10437
   58565,   10137,   10138,   10438
   58566,   10135,   10136,   10439
   58567,   10190,   10191,   10440
   58568,   10133,   10134,   10441
   58569,   10132,   10133,   10442
   58570,   10130,   10131,   10443
   58571,   10128,   10129,   10444
   58572,   10127,   10128,   10445
** ... 1893 like lines cut
*ELEMENT, TYPE=STRI3, ELSET=EB26
   60466,    5752,    4694,    4695
   60467,    5603,    5604,    5753
   60468,    5602,    5603,    5754
   60469,    5601,    5602,    5755
   60470,    5599,    5600,    5756
   60471,    5598,    5599,    5757
   60472,    5758,    5450,    5451
   60473,    5596,    5597,    5759
   60474,    5594,    5595,    5760
   60475,    5593,    5594,    5761
   60476,    5592,    5593,    5762
   60477,    5590,    5591,    5763
   60478,    4508,    4509,    5764
   60479,    4506,    4507,    5765
   60480,    4504,    4505,    5766
   60481,    4377,    4378,    5767
   60482,    4375,    4376,    5768
   60483,    4374,    4375,    5769
   60484,    4372,    4373,    5770
   60485,    4370,    4371,    5771
** ... 9992 like lines cut
*ELEMENT, TYPE=STRI3, ELSET=EB27
   70478,     913,     914,    1131
   70479,     911,     912,    1132
   70480,     908,     909,    1133
   70481,     906,     907,    1134
   70482,     904,     905,    1135
   70483,     902,     903,    1136
   70484,     901,     902,    1137
   70485,     899,     900,    1138
   70486,     897,     898,    1139
   70487,     895,     896,    1140
   70488,     893,     894,    1141
   70489,     891,     892,    1142
   70490,     889,     890,    1143
   70491,     888,     889,    1144
   70492,     886,     887,    1145
   70493,     883,     884,    1146
   70494,     881,     882,    1147
   70495,     880,     881,    1148
   70496,     878,     879,    1149
   70497,     876,     877,    1150
** ... 7158 like lines cut
**
********************************** P R O P E R T I E S ************************
*SHELL SECTION, ELSET=EB1, SECTION INTEGRATION=SIMPSON, MATERIAL=Default-Steel
1.000000e+00
*SHELL SECTION, ELSET=EB2, SECTION INTEGRATION=SIMPSON, MATERIAL=Default-Steel
1.000000e+00
*SHELL SECTION, ELSET=EB3, SECTION INTEGRATION=SIMPSON, MATERIAL=Default-Steel
1.000000e+00
*SHELL SECTION, ELSET=EB4, SECTION INTEGRATION=SIMPSON, MATERIAL=Default-Steel
1.000000e+00
*SHELL SECTION, ELSET=EB5, SECTION INTEGRATION=SIMPSON, MATERIAL=Default-Steel
1.000000e+00
*SHELL SECTION, ELSET=EB6, SECTION INTEGRATION=SIMPSON, MATERIAL=Default-Steel
1.000000e+00
*SHELL SECTION, ELSET=EB7, SECTION INTEGRATION=SIMPSON, MATERIAL=Default-Steel
1.000000e+00
*SHELL SECTION, ELSET=EB8, SECTION INTEGRATION=SIMPSON, MATERIAL=Default-Steel
1.000000e+00
*SHELL SECTION, ELSET=EB9, SECTION INTEGRATION=SIMPSON, MATERIAL=Default-Steel
1.000000e+00
*SHELL SECTION, ELSET=EB10, SECTION INTEGRATION=SIMPSON, MATERIAL=Default-Steel
1.000000e+00
*SHELL SECTION, ELSET=EB11, SECTION INTEGRATION=SIMPSON, MATERIAL=Default-Steel
1.000000e+00
*SHELL SECTION, ELSET=EB12, SECTION INTEGRATION=SIMPSON, MATERIAL=Default-Steel
1.000000e+00
*SHELL SECTION, ELSET=EB13, SECTION INTEGRATION=SIMPSON, MATERIAL=Default-Steel
1.000000e+00
*SHELL SECTION, ELSET=EB14, SECTION INTEGRATION=SIMPSON, MATERIAL=Default-Steel
1.000000e+00
*SHELL SECTION, ELSET=EB15, SECTION INTEGRATION=SIMPSON, MATERIAL=Default-Steel
1.000000e+00
*SHELL SECTION, ELSET=EB16, SECTION INTEGRATION=SIMPSON, MATERIAL=Default-Steel
1.000000e+00
*SHELL SECTION, ELSET=EB17, SECTION INTEGRATION=SIMPSON, MATERIAL=Default-Steel
1.000000e+00
*SHELL SECTION, ELSET=EB18, SECTION INTEGRATION=SIMPSON, MATERIAL=Default-Steel
1.000000e+00
*SHELL SECTION, ELSET=EB19, SECTION INTEGRATION=SIMPSON, MATERIAL=Default-Steel
1.000000e+00
*SHELL SECTION, ELSET=EB20, SECTION INTEGRATION=SIMPSON, MATERIAL=Default-Steel
1.000000e+00
** ... 14 like lines cut
**
*END PART
**
**
**
********************************** E N D   P A R T S **********************************
**
**
********************************** A S S E M B L Y ************************************
**
*ASSEMBLY, NAME=ASSEMBLY1
**
*INSTANCE, NAME=Part-Default_1, PART=Part-Default
*END INSTANCE
**
*END ASSEMBLY
**
**
**
*MATERIAL, NAME = Default-Steel
*ELASTIC, TYPE=ISOTROPIC
2.068000e+05, 2.900000e-01
*DENSITY
7.000000e-06
*CONDUCTIVITY,TYPE=ISO
4.500000e-02
*SPECIFIC HEAT
5.000000e+02
**
**
************************************** H I S T O R Y *************************************
**
*PREPRINT
**
**************************************** S T E P 1 ***************************************
*STEP,INC=100,NAME=Default Set
**
*STATIC
1, 1, 1e-05, 1
**
**
**
**
*END STEP
